New Loadshape.Storage_1 npts=1440 minterval=1 mult=(file=Load_Profiles\Winter\Winter_Storage_Profile_kW_Load1.csv) action=normalize
New Loadshape.Storage_2 npts=1440 minterval=1 mult=(file=Load_Profiles\Winter\Winter_Storage_Profile_kW_Load2.csv) action=normalize
New Loadshape.Storage_3 npts=1440 minterval=1 mult=(file=Load_Profiles\Winter\Winter_Storage_Profile_kW_Load3.csv) action=normalize
New Loadshape.Storage_4 npts=1440 minterval=1 mult=(file=Load_Profiles\Winter\Winter_Storage_Profile_kW_Load4.csv) action=normalize
New Loadshape.Storage_5 npts=1440 minterval=1 mult=(file=Load_Profiles\Winter\Winter_Storage_Profile_kW_Load5.csv) action=normalize
New Loadshape.Storage_6 npts=1440 minterval=1 mult=(file=Load_Profiles\Winter\Winter_Storage_Profile_kW_Load6.csv) action=normalize
New Loadshape.Storage_7 npts=1440 minterval=1 mult=(file=Load_Profiles\Winter\Winter_Storage_Profile_kW_Load7.csv) action=normalize
New Loadshape.Storage_8 npts=1440 minterval=1 mult=(file=Load_Profiles\Winter\Winter_Storage_Profile_kW_Load8.csv) action=normalize
New Loadshape.Storage_9 npts=1440 minterval=1 mult=(file=Load_Profiles\Winter\Winter_Storage_Profile_kW_Load9.csv) action=normalize
New Loadshape.Storage_10 npts=1440 minterval=1 mult=(file=Load_Profiles\Winter\Winter_Storage_Profile_kW_Load10.csv) action=normalize
New Loadshape.Storage_11 npts=1440 minterval=1 mult=(file=Load_Profiles\Winter\Winter_Storage_Profile_kW_Load11.csv) action=normalize
New Loadshape.Storage_12 npts=1440 minterval=1 mult=(file=Load_Profiles\Winter\Winter_Storage_Profile_kW_Load12.csv) action=normalize
New Loadshape.Storage_13 npts=1440 minterval=1 mult=(file=Load_Profiles\Winter\Winter_Storage_Profile_kW_Load13.csv) action=normalize
New Loadshape.Storage_14 npts=1440 minterval=1 mult=(file=Load_Profiles\Winter\Winter_Storage_Profile_kW_Load14.csv) action=normalize
New Loadshape.Storage_15 npts=1440 minterval=1 mult=(file=Load_Profiles\Winter\Winter_Storage_Profile_kW_Load15.csv) action=normalize
New Loadshape.Storage_16 npts=1440 minterval=1 mult=(file=Load_Profiles\Winter\Winter_Storage_Profile_kW_Load16.csv) action=normalize
New Loadshape.Storage_17 npts=1440 minterval=1 mult=(file=Load_Profiles\Winter\Winter_Storage_Profile_kW_Load17.csv) action=normalize
New Loadshape.Storage_18 npts=1440 minterval=1 mult=(file=Load_Profiles\Winter\Winter_Storage_Profile_kW_Load18.csv) action=normalize
New Loadshape.Storage_19 npts=1440 minterval=1 mult=(file=Load_Profiles\Winter\Winter_Storage_Profile_kW_Load19.csv) action=normalize
New Loadshape.Storage_20 npts=1440 minterval=1 mult=(file=Load_Profiles\Winter\Winter_Storage_Profile_kW_Load20.csv) action=normalize
New Loadshape.Storage_21 npts=1440 minterval=1 mult=(file=Load_Profiles\Winter\Winter_Storage_Profile_kW_Load21.csv) action=normalize
New Loadshape.Storage_22 npts=1440 minterval=1 mult=(file=Load_Profiles\Winter\Winter_Storage_Profile_kW_Load22.csv) action=normalize
New Loadshape.Storage_23 npts=1440 minterval=1 mult=(file=Load_Profiles\Winter\Winter_Storage_Profile_kW_Load23.csv) action=normalize
New Loadshape.Storage_24 npts=1440 minterval=1 mult=(file=Load_Profiles\Winter\Winter_Storage_Profile_kW_Load24.csv) action=normalize
New Loadshape.Storage_25 npts=1440 minterval=1 mult=(file=Load_Profiles\Winter\Winter_Storage_Profile_kW_Load25.csv) action=normalize
New Loadshape.Storage_26 npts=1440 minterval=1 mult=(file=Load_Profiles\Winter\Winter_Storage_Profile_kW_Load26.csv) action=normalize
New Loadshape.Storage_27 npts=1440 minterval=1 mult=(file=Load_Profiles\Winter\Winter_Storage_Profile_kW_Load27.csv) action=normalize
New Loadshape.Storage_28 npts=1440 minterval=1 mult=(file=Load_Profiles\Winter\Winter_Storage_Profile_kW_Load28.csv) action=normalize
New Loadshape.Storage_29 npts=1440 minterval=1 mult=(file=Load_Profiles\Winter\Winter_Storage_Profile_kW_Load29.csv) action=normalize
New Loadshape.Storage_30 npts=1440 minterval=1 mult=(file=Load_Profiles\Winter\Winter_Storage_Profile_kW_Load30.csv) action=normalize
New Loadshape.Storage_31 npts=1440 minterval=1 mult=(file=Load_Profiles\Winter\Winter_Storage_Profile_kW_Load31.csv) action=normalize
New Loadshape.Storage_32 npts=1440 minterval=1 mult=(file=Load_Profiles\Winter\Winter_Storage_Profile_kW_Load32.csv) action=normalize
New Loadshape.Storage_33 npts=1440 minterval=1 mult=(file=Load_Profiles\Winter\Winter_Storage_Profile_kW_Load33.csv) action=normalize
New Loadshape.Storage_34 npts=1440 minterval=1 mult=(file=Load_Profiles\Winter\Winter_Storage_Profile_kW_Load34.csv) action=normalize
New Loadshape.Storage_35 npts=1440 minterval=1 mult=(file=Load_Profiles\Winter\Winter_Storage_Profile_kW_Load35.csv) action=normalize
New Loadshape.Storage_36 npts=1440 minterval=1 mult=(file=Load_Profiles\Winter\Winter_Storage_Profile_kW_Load36.csv) action=normalize
New Loadshape.Storage_37 npts=1440 minterval=1 mult=(file=Load_Profiles\Winter\Winter_Storage_Profile_kW_Load37.csv) action=normalize
New Loadshape.Storage_38 npts=1440 minterval=1 mult=(file=Load_Profiles\Winter\Winter_Storage_Profile_kW_Load38.csv) action=normalize
New Loadshape.Storage_39 npts=1440 minterval=1 mult=(file=Load_Profiles\Winter\Winter_Storage_Profile_kW_Load39.csv) action=normalize
New Loadshape.Storage_40 npts=1440 minterval=1 mult=(file=Load_Profiles\Winter\Winter_Storage_Profile_kW_Load40.csv) action=normalize
New Loadshape.Storage_41 npts=1440 minterval=1 mult=(file=Load_Profiles\Winter\Winter_Storage_Profile_kW_Load41.csv) action=normalize
New Loadshape.Storage_42 npts=1440 minterval=1 mult=(file=Load_Profiles\Winter\Winter_Storage_Profile_kW_Load42.csv) action=normalize
New Loadshape.Storage_43 npts=1440 minterval=1 mult=(file=Load_Profiles\Winter\Winter_Storage_Profile_kW_Load43.csv) action=normalize
New Loadshape.Storage_44 npts=1440 minterval=1 mult=(file=Load_Profiles\Winter\Winter_Storage_Profile_kW_Load44.csv) action=normalize
New Loadshape.Storage_45 npts=1440 minterval=1 mult=(file=Load_Profiles\Winter\Winter_Storage_Profile_kW_Load45.csv) action=normalize
New Loadshape.Storage_46 npts=1440 minterval=1 mult=(file=Load_Profiles\Winter\Winter_Storage_Profile_kW_Load46.csv) action=normalize
New Loadshape.Storage_47 npts=1440 minterval=1 mult=(file=Load_Profiles\Winter\Winter_Storage_Profile_kW_Load47.csv) action=normalize
New Loadshape.Storage_48 npts=1440 minterval=1 mult=(file=Load_Profiles\Winter\Winter_Storage_Profile_kW_Load48.csv) action=normalize
New Loadshape.Storage_49 npts=1440 minterval=1 mult=(file=Load_Profiles\Winter\Winter_Storage_Profile_kW_Load49.csv) action=normalize
New Loadshape.Storage_50 npts=1440 minterval=1 mult=(file=Load_Profiles\Winter\Winter_Storage_Profile_kW_Load50.csv) action=normalize
New Loadshape.Storage_51 npts=1440 minterval=1 mult=(file=Load_Profiles\Winter\Winter_Storage_Profile_kW_Load51.csv) action=normalize
New Loadshape.Storage_52 npts=1440 minterval=1 mult=(file=Load_Profiles\Winter\Winter_Storage_Profile_kW_Load52.csv) action=normalize
New Loadshape.Storage_53 npts=1440 minterval=1 mult=(file=Load_Profiles\Winter\Winter_Storage_Profile_kW_Load53.csv) action=normalize
New Loadshape.Storage_54 npts=1440 minterval=1 mult=(file=Load_Profiles\Winter\Winter_Storage_Profile_kW_Load54.csv) action=normalize
New Loadshape.Storage_55 npts=1440 minterval=1 mult=(file=Load_Profiles\Winter\Winter_Storage_Profile_kW_Load55.csv) action=normalize