New Loadshape.Shape_1 npts=1440 minterval=1 mult=(file=Load_Profiles\Winter\Winter_Load_Output_kW_Load1.csv) useactual=no
New Loadshape.Shape_2 npts=1440 minterval=1 mult=(file=Load_Profiles\Winter\Winter_Load_Output_kW_Load2.csv) useactual=no
New Loadshape.Shape_3 npts=1440 minterval=1 mult=(file=Load_Profiles\Winter\Winter_Load_Output_kW_Load3.csv) useactual=no
New Loadshape.Shape_4 npts=1440 minterval=1 mult=(file=Load_Profiles\Winter\Winter_Load_Output_kW_Load4.csv) useactual=no
New Loadshape.Shape_5 npts=1440 minterval=1 mult=(file=Load_Profiles\Winter\Winter_Load_Output_kW_Load5.csv) useactual=no
New Loadshape.Shape_6 npts=1440 minterval=1 mult=(file=Load_Profiles\Winter\Winter_Load_Output_kW_Load6.csv) useactual=no
New Loadshape.Shape_7 npts=1440 minterval=1 mult=(file=Load_Profiles\Winter\Winter_Load_Output_kW_Load7.csv) useactual=no
New Loadshape.Shape_8 npts=1440 minterval=1 mult=(file=Load_Profiles\Winter\Winter_Load_Output_kW_Load8.csv) useactual=no
New Loadshape.Shape_9 npts=1440 minterval=1 mult=(file=Load_Profiles\Winter\Winter_Load_Output_kW_Load9.csv) useactual=no
New Loadshape.Shape_10 npts=1440 minterval=1 mult=(file=Load_Profiles\Winter\Winter_Load_Output_kW_Load10.csv) useactual=no
New Loadshape.Shape_11 npts=1440 minterval=1 mult=(file=Load_Profiles\Winter\Winter_Load_Output_kW_Load11.csv) useactual=no
New Loadshape.Shape_12 npts=1440 minterval=1 mult=(file=Load_Profiles\Winter\Winter_Load_Output_kW_Load12.csv) useactual=no
New Loadshape.Shape_13 npts=1440 minterval=1 mult=(file=Load_Profiles\Winter\Winter_Load_Output_kW_Load13.csv) useactual=no
New Loadshape.Shape_14 npts=1440 minterval=1 mult=(file=Load_Profiles\Winter\Winter_Load_Output_kW_Load14.csv) useactual=no
New Loadshape.Shape_15 npts=1440 minterval=1 mult=(file=Load_Profiles\Winter\Winter_Load_Output_kW_Load15.csv) useactual=no
New Loadshape.Shape_16 npts=1440 minterval=1 mult=(file=Load_Profiles\Winter\Winter_Load_Output_kW_Load16.csv) useactual=no
New Loadshape.Shape_17 npts=1440 minterval=1 mult=(file=Load_Profiles\Winter\Winter_Load_Output_kW_Load17.csv) useactual=no
New Loadshape.Shape_18 npts=1440 minterval=1 mult=(file=Load_Profiles\Winter\Winter_Load_Output_kW_Load18.csv) useactual=no
New Loadshape.Shape_19 npts=1440 minterval=1 mult=(file=Load_Profiles\Winter\Winter_Load_Output_kW_Load19.csv) useactual=no
New Loadshape.Shape_20 npts=1440 minterval=1 mult=(file=Load_Profiles\Winter\Winter_Load_Output_kW_Load20.csv) useactual=no
New Loadshape.Shape_21 npts=1440 minterval=1 mult=(file=Load_Profiles\Winter\Winter_Load_Output_kW_Load21.csv) useactual=no
New Loadshape.Shape_22 npts=1440 minterval=1 mult=(file=Load_Profiles\Winter\Winter_Load_Output_kW_Load22.csv) useactual=no
New Loadshape.Shape_23 npts=1440 minterval=1 mult=(file=Load_Profiles\Winter\Winter_Load_Output_kW_Load23.csv) useactual=no
New Loadshape.Shape_24 npts=1440 minterval=1 mult=(file=Load_Profiles\Winter\Winter_Load_Output_kW_Load24.csv) useactual=no
New Loadshape.Shape_25 npts=1440 minterval=1 mult=(file=Load_Profiles\Winter\Winter_Load_Output_kW_Load25.csv) useactual=no
New Loadshape.Shape_26 npts=1440 minterval=1 mult=(file=Load_Profiles\Winter\Winter_Load_Output_kW_Load26.csv) useactual=no
New Loadshape.Shape_27 npts=1440 minterval=1 mult=(file=Load_Profiles\Winter\Winter_Load_Output_kW_Load27.csv) useactual=no
New Loadshape.Shape_28 npts=1440 minterval=1 mult=(file=Load_Profiles\Winter\Winter_Load_Output_kW_Load28.csv) useactual=no
New Loadshape.Shape_29 npts=1440 minterval=1 mult=(file=Load_Profiles\Winter\Winter_Load_Output_kW_Load29.csv) useactual=no
New Loadshape.Shape_30 npts=1440 minterval=1 mult=(file=Load_Profiles\Winter\Winter_Load_Output_kW_Load30.csv) useactual=no
New Loadshape.Shape_31 npts=1440 minterval=1 mult=(file=Load_Profiles\Winter\Winter_Load_Output_kW_Load31.csv) useactual=no
New Loadshape.Shape_32 npts=1440 minterval=1 mult=(file=Load_Profiles\Winter\Winter_Load_Output_kW_Load32.csv) useactual=no
New Loadshape.Shape_33 npts=1440 minterval=1 mult=(file=Load_Profiles\Winter\Winter_Load_Output_kW_Load33.csv) useactual=no
New Loadshape.Shape_34 npts=1440 minterval=1 mult=(file=Load_Profiles\Winter\Winter_Load_Output_kW_Load34.csv) useactual=no
New Loadshape.Shape_35 npts=1440 minterval=1 mult=(file=Load_Profiles\Winter\Winter_Load_Output_kW_Load35.csv) useactual=no
New Loadshape.Shape_36 npts=1440 minterval=1 mult=(file=Load_Profiles\Winter\Winter_Load_Output_kW_Load36.csv) useactual=no
New Loadshape.Shape_37 npts=1440 minterval=1 mult=(file=Load_Profiles\Winter\Winter_Load_Output_kW_Load37.csv) useactual=no
New Loadshape.Shape_38 npts=1440 minterval=1 mult=(file=Load_Profiles\Winter\Winter_Load_Output_kW_Load38.csv) useactual=no
New Loadshape.Shape_39 npts=1440 minterval=1 mult=(file=Load_Profiles\Winter\Winter_Load_Output_kW_Load39.csv) useactual=no
New Loadshape.Shape_40 npts=1440 minterval=1 mult=(file=Load_Profiles\Winter\Winter_Load_Output_kW_Load40.csv) useactual=no
New Loadshape.Shape_41 npts=1440 minterval=1 mult=(file=Load_Profiles\Winter\Winter_Load_Output_kW_Load41.csv) useactual=no
New Loadshape.Shape_42 npts=1440 minterval=1 mult=(file=Load_Profiles\Winter\Winter_Load_Output_kW_Load42.csv) useactual=no
New Loadshape.Shape_43 npts=1440 minterval=1 mult=(file=Load_Profiles\Winter\Winter_Load_Output_kW_Load43.csv) useactual=no
New Loadshape.Shape_44 npts=1440 minterval=1 mult=(file=Load_Profiles\Winter\Winter_Load_Output_kW_Load44.csv) useactual=no
New Loadshape.Shape_45 npts=1440 minterval=1 mult=(file=Load_Profiles\Winter\Winter_Load_Output_kW_Load45.csv) useactual=no
New Loadshape.Shape_46 npts=1440 minterval=1 mult=(file=Load_Profiles\Winter\Winter_Load_Output_kW_Load46.csv) useactual=no
New Loadshape.Shape_47 npts=1440 minterval=1 mult=(file=Load_Profiles\Winter\Winter_Load_Output_kW_Load47.csv) useactual=no
New Loadshape.Shape_48 npts=1440 minterval=1 mult=(file=Load_Profiles\Winter\Winter_Load_Output_kW_Load48.csv) useactual=no
New Loadshape.Shape_49 npts=1440 minterval=1 mult=(file=Load_Profiles\Winter\Winter_Load_Output_kW_Load49.csv) useactual=no
New Loadshape.Shape_50 npts=1440 minterval=1 mult=(file=Load_Profiles\Winter\Winter_Load_Output_kW_Load50.csv) useactual=no
New Loadshape.Shape_51 npts=1440 minterval=1 mult=(file=Load_Profiles\Winter\Winter_Load_Output_kW_Load51.csv) useactual=no
New Loadshape.Shape_52 npts=1440 minterval=1 mult=(file=Load_Profiles\Winter\Winter_Load_Output_kW_Load52.csv) useactual=no
New Loadshape.Shape_53 npts=1440 minterval=1 mult=(file=Load_Profiles\Winter\Winter_Load_Output_kW_Load53.csv) useactual=no
New Loadshape.Shape_54 npts=1440 minterval=1 mult=(file=Load_Profiles\Winter\Winter_Load_Output_kW_Load54.csv) useactual=no
New Loadshape.Shape_55 npts=1440 minterval=1 mult=(file=Load_Profiles\Winter\Winter_Load_Output_kW_Load55.csv) useactual=no