New Loadshape.PV_1 npts=1440 minterval=1 mult=(file=Load_Profiles\Summer\Summer_PV_Output_kW_Load1.csv) action=normalize
New Loadshape.PV_2 npts=1440 minterval=1 mult=(file=Load_Profiles\Summer\Summer_PV_Output_kW_Load2.csv) action=normalize
New Loadshape.PV_3 npts=1440 minterval=1 mult=(file=Load_Profiles\Summer\Summer_PV_Output_kW_Load3.csv) action=normalize
New Loadshape.PV_4 npts=1440 minterval=1 mult=(file=Load_Profiles\Summer\Summer_PV_Output_kW_Load4.csv) action=normalize
New Loadshape.PV_5 npts=1440 minterval=1 mult=(file=Load_Profiles\Summer\Summer_PV_Output_kW_Load5.csv) action=normalize
New Loadshape.PV_6 npts=1440 minterval=1 mult=(file=Load_Profiles\Summer\Summer_PV_Output_kW_Load6.csv) action=normalize
New Loadshape.PV_7 npts=1440 minterval=1 mult=(file=Load_Profiles\Summer\Summer_PV_Output_kW_Load7.csv) action=normalize
New Loadshape.PV_8 npts=1440 minterval=1 mult=(file=Load_Profiles\Summer\Summer_PV_Output_kW_Load8.csv) action=normalize
New Loadshape.PV_9 npts=1440 minterval=1 mult=(file=Load_Profiles\Summer\Summer_PV_Output_kW_Load9.csv) action=normalize
New Loadshape.PV_10 npts=1440 minterval=1 mult=(file=Load_Profiles\Summer\Summer_PV_Output_kW_Load10.csv) action=normalize
New Loadshape.PV_11 npts=1440 minterval=1 mult=(file=Load_Profiles\Summer\Summer_PV_Output_kW_Load11.csv) action=normalize
New Loadshape.PV_12 npts=1440 minterval=1 mult=(file=Load_Profiles\Summer\Summer_PV_Output_kW_Load12.csv) action=normalize
New Loadshape.PV_13 npts=1440 minterval=1 mult=(file=Load_Profiles\Summer\Summer_PV_Output_kW_Load13.csv) action=normalize
New Loadshape.PV_14 npts=1440 minterval=1 mult=(file=Load_Profiles\Summer\Summer_PV_Output_kW_Load14.csv) action=normalize
New Loadshape.PV_15 npts=1440 minterval=1 mult=(file=Load_Profiles\Summer\Summer_PV_Output_kW_Load15.csv) action=normalize
New Loadshape.PV_16 npts=1440 minterval=1 mult=(file=Load_Profiles\Summer\Summer_PV_Output_kW_Load16.csv) action=normalize
New Loadshape.PV_17 npts=1440 minterval=1 mult=(file=Load_Profiles\Summer\Summer_PV_Output_kW_Load17.csv) action=normalize
New Loadshape.PV_18 npts=1440 minterval=1 mult=(file=Load_Profiles\Summer\Summer_PV_Output_kW_Load18.csv) action=normalize
New Loadshape.PV_19 npts=1440 minterval=1 mult=(file=Load_Profiles\Summer\Summer_PV_Output_kW_Load19.csv) action=normalize
New Loadshape.PV_20 npts=1440 minterval=1 mult=(file=Load_Profiles\Summer\Summer_PV_Output_kW_Load20.csv) action=normalize
New Loadshape.PV_21 npts=1440 minterval=1 mult=(file=Load_Profiles\Summer\Summer_PV_Output_kW_Load21.csv) action=normalize
New Loadshape.PV_22 npts=1440 minterval=1 mult=(file=Load_Profiles\Summer\Summer_PV_Output_kW_Load22.csv) action=normalize
New Loadshape.PV_23 npts=1440 minterval=1 mult=(file=Load_Profiles\Summer\Summer_PV_Output_kW_Load23.csv) action=normalize
New Loadshape.PV_24 npts=1440 minterval=1 mult=(file=Load_Profiles\Summer\Summer_PV_Output_kW_Load24.csv) action=normalize
New Loadshape.PV_25 npts=1440 minterval=1 mult=(file=Load_Profiles\Summer\Summer_PV_Output_kW_Load25.csv) action=normalize
New Loadshape.PV_26 npts=1440 minterval=1 mult=(file=Load_Profiles\Summer\Summer_PV_Output_kW_Load26.csv) action=normalize
New Loadshape.PV_27 npts=1440 minterval=1 mult=(file=Load_Profiles\Summer\Summer_PV_Output_kW_Load27.csv) action=normalize
New Loadshape.PV_28 npts=1440 minterval=1 mult=(file=Load_Profiles\Summer\Summer_PV_Output_kW_Load28.csv) action=normalize
New Loadshape.PV_29 npts=1440 minterval=1 mult=(file=Load_Profiles\Summer\Summer_PV_Output_kW_Load29.csv) action=normalize
New Loadshape.PV_30 npts=1440 minterval=1 mult=(file=Load_Profiles\Summer\Summer_PV_Output_kW_Load30.csv) action=normalize
New Loadshape.PV_31 npts=1440 minterval=1 mult=(file=Load_Profiles\Summer\Summer_PV_Output_kW_Load31.csv) action=normalize
New Loadshape.PV_32 npts=1440 minterval=1 mult=(file=Load_Profiles\Summer\Summer_PV_Output_kW_Load32.csv) action=normalize
New Loadshape.PV_33 npts=1440 minterval=1 mult=(file=Load_Profiles\Summer\Summer_PV_Output_kW_Load33.csv) action=normalize
New Loadshape.PV_34 npts=1440 minterval=1 mult=(file=Load_Profiles\Summer\Summer_PV_Output_kW_Load34.csv) action=normalize
New Loadshape.PV_35 npts=1440 minterval=1 mult=(file=Load_Profiles\Summer\Summer_PV_Output_kW_Load35.csv) action=normalize
New Loadshape.PV_36 npts=1440 minterval=1 mult=(file=Load_Profiles\Summer\Summer_PV_Output_kW_Load36.csv) action=normalize
New Loadshape.PV_37 npts=1440 minterval=1 mult=(file=Load_Profiles\Summer\Summer_PV_Output_kW_Load37.csv) action=normalize
New Loadshape.PV_38 npts=1440 minterval=1 mult=(file=Load_Profiles\Summer\Summer_PV_Output_kW_Load38.csv) action=normalize
New Loadshape.PV_39 npts=1440 minterval=1 mult=(file=Load_Profiles\Summer\Summer_PV_Output_kW_Load39.csv) action=normalize
New Loadshape.PV_40 npts=1440 minterval=1 mult=(file=Load_Profiles\Summer\Summer_PV_Output_kW_Load40.csv) action=normalize
New Loadshape.PV_41 npts=1440 minterval=1 mult=(file=Load_Profiles\Summer\Summer_PV_Output_kW_Load41.csv) action=normalize
New Loadshape.PV_42 npts=1440 minterval=1 mult=(file=Load_Profiles\Summer\Summer_PV_Output_kW_Load42.csv) action=normalize
New Loadshape.PV_43 npts=1440 minterval=1 mult=(file=Load_Profiles\Summer\Summer_PV_Output_kW_Load43.csv) action=normalize
New Loadshape.PV_44 npts=1440 minterval=1 mult=(file=Load_Profiles\Summer\Summer_PV_Output_kW_Load44.csv) action=normalize
New Loadshape.PV_45 npts=1440 minterval=1 mult=(file=Load_Profiles\Summer\Summer_PV_Output_kW_Load45.csv) action=normalize
New Loadshape.PV_46 npts=1440 minterval=1 mult=(file=Load_Profiles\Summer\Summer_PV_Output_kW_Load46.csv) action=normalize
New Loadshape.PV_47 npts=1440 minterval=1 mult=(file=Load_Profiles\Summer\Summer_PV_Output_kW_Load47.csv) action=normalize
New Loadshape.PV_48 npts=1440 minterval=1 mult=(file=Load_Profiles\Summer\Summer_PV_Output_kW_Load48.csv) action=normalize
New Loadshape.PV_49 npts=1440 minterval=1 mult=(file=Load_Profiles\Summer\Summer_PV_Output_kW_Load49.csv) action=normalize
New Loadshape.PV_50 npts=1440 minterval=1 mult=(file=Load_Profiles\Summer\Summer_PV_Output_kW_Load50.csv) action=normalize
New Loadshape.PV_51 npts=1440 minterval=1 mult=(file=Load_Profiles\Summer\Summer_PV_Output_kW_Load51.csv) action=normalize
New Loadshape.PV_52 npts=1440 minterval=1 mult=(file=Load_Profiles\Summer\Summer_PV_Output_kW_Load52.csv) action=normalize
New Loadshape.PV_53 npts=1440 minterval=1 mult=(file=Load_Profiles\Summer\Summer_PV_Output_kW_Load53.csv) action=normalize
New Loadshape.PV_54 npts=1440 minterval=1 mult=(file=Load_Profiles\Summer\Summer_PV_Output_kW_Load54.csv) action=normalize
New Loadshape.PV_55 npts=1440 minterval=1 mult=(file=Load_Profiles\Summer\Summer_PV_Output_kW_Load55.csv) action=normalize