New Loadshape.PV_1 npts=1440 minterval=1 mult=(file=Load_Profiles\Winter\Winter_PV_Output_kW_Load1.csv) action=normalize
New Loadshape.PV_3 npts=1440 minterval=1 mult=(file=Load_Profiles\Winter\Winter_PV_Output_kW_Load3.csv) action=normalize
New Loadshape.PV_5 npts=1440 minterval=1 mult=(file=Load_Profiles\Winter\Winter_PV_Output_kW_Load5.csv) action=normalize
New Loadshape.PV_7 npts=1440 minterval=1 mult=(file=Load_Profiles\Winter\Winter_PV_Output_kW_Load7.csv) action=normalize
New Loadshape.PV_9 npts=1440 minterval=1 mult=(file=Load_Profiles\Winter\Winter_PV_Output_kW_Load9.csv) action=normalize
New Loadshape.PV_11 npts=1440 minterval=1 mult=(file=Load_Profiles\Winter\Winter_PV_Output_kW_Load11.csv) action=normalize
New Loadshape.PV_13 npts=1440 minterval=1 mult=(file=Load_Profiles\Winter\Winter_PV_Output_kW_Load13.csv) action=normalize
New Loadshape.PV_15 npts=1440 minterval=1 mult=(file=Load_Profiles\Winter\Winter_PV_Output_kW_Load15.csv) action=normalize
New Loadshape.PV_17 npts=1440 minterval=1 mult=(file=Load_Profiles\Winter\Winter_PV_Output_kW_Load17.csv) action=normalize
New Loadshape.PV_19 npts=1440 minterval=1 mult=(file=Load_Profiles\Winter\Winter_PV_Output_kW_Load19.csv) action=normalize
New Loadshape.PV_21 npts=1440 minterval=1 mult=(file=Load_Profiles\Winter\Winter_PV_Output_kW_Load21.csv) action=normalize
New Loadshape.PV_23 npts=1440 minterval=1 mult=(file=Load_Profiles\Winter\Winter_PV_Output_kW_Load23.csv) action=normalize
New Loadshape.PV_25 npts=1440 minterval=1 mult=(file=Load_Profiles\Winter\Winter_PV_Output_kW_Load25.csv) action=normalize
New Loadshape.PV_27 npts=1440 minterval=1 mult=(file=Load_Profiles\Winter\Winter_PV_Output_kW_Load27.csv) action=normalize
New Loadshape.PV_29 npts=1440 minterval=1 mult=(file=Load_Profiles\Winter\Winter_PV_Output_kW_Load29.csv) action=normalize
New Loadshape.PV_31 npts=1440 minterval=1 mult=(file=Load_Profiles\Winter\Winter_PV_Output_kW_Load31.csv) action=normalize
New Loadshape.PV_33 npts=1440 minterval=1 mult=(file=Load_Profiles\Winter\Winter_PV_Output_kW_Load33.csv) action=normalize
New Loadshape.PV_35 npts=1440 minterval=1 mult=(file=Load_Profiles\Winter\Winter_PV_Output_kW_Load35.csv) action=normalize
New Loadshape.PV_37 npts=1440 minterval=1 mult=(file=Load_Profiles\Winter\Winter_PV_Output_kW_Load37.csv) action=normalize
New Loadshape.PV_39 npts=1440 minterval=1 mult=(file=Load_Profiles\Winter\Winter_PV_Output_kW_Load39.csv) action=normalize
New Loadshape.PV_41 npts=1440 minterval=1 mult=(file=Load_Profiles\Winter\Winter_PV_Output_kW_Load41.csv) action=normalize
New Loadshape.PV_43 npts=1440 minterval=1 mult=(file=Load_Profiles\Winter\Winter_PV_Output_kW_Load43.csv) action=normalize
New Loadshape.PV_45 npts=1440 minterval=1 mult=(file=Load_Profiles\Winter\Winter_PV_Output_kW_Load45.csv) action=normalize
New Loadshape.PV_47 npts=1440 minterval=1 mult=(file=Load_Profiles\Winter\Winter_PV_Output_kW_Load47.csv) action=normalize
New Loadshape.PV_49 npts=1440 minterval=1 mult=(file=Load_Profiles\Winter\Winter_PV_Output_kW_Load49.csv) action=normalize
New Loadshape.PV_51 npts=1440 minterval=1 mult=(file=Load_Profiles\Winter\Winter_PV_Output_kW_Load51.csv) action=normalize
New Loadshape.PV_53 npts=1440 minterval=1 mult=(file=Load_Profiles\Winter\Winter_PV_Output_kW_Load53.csv) action=normalize
New Loadshape.PV_55 npts=1440 minterval=1 mult=(file=Load_Profiles\Winter\Winter_PV_Output_kW_Load55.csv) action=normalize