New Loadshape.Storage_1 npts=1440 minterval=1 mult=(file=Load_Profiles\Summer\Summer_Storage_Profile_kW_Load1.csv) action=normalize
New Loadshape.Storage_3 npts=1440 minterval=1 mult=(file=Load_Profiles\Summer\Summer_Storage_Profile_kW_Load3.csv) action=normalize
New Loadshape.Storage_5 npts=1440 minterval=1 mult=(file=Load_Profiles\Summer\Summer_Storage_Profile_kW_Load5.csv) action=normalize
New Loadshape.Storage_7 npts=1440 minterval=1 mult=(file=Load_Profiles\Summer\Summer_Storage_Profile_kW_Load7.csv) action=normalize
New Loadshape.Storage_9 npts=1440 minterval=1 mult=(file=Load_Profiles\Summer\Summer_Storage_Profile_kW_Load9.csv) action=normalize
New Loadshape.Storage_11 npts=1440 minterval=1 mult=(file=Load_Profiles\Summer\Summer_Storage_Profile_kW_Load11.csv) action=normalize
New Loadshape.Storage_13 npts=1440 minterval=1 mult=(file=Load_Profiles\Summer\Summer_Storage_Profile_kW_Load13.csv) action=normalize
New Loadshape.Storage_15 npts=1440 minterval=1 mult=(file=Load_Profiles\Summer\Summer_Storage_Profile_kW_Load15.csv) action=normalize
New Loadshape.Storage_17 npts=1440 minterval=1 mult=(file=Load_Profiles\Summer\Summer_Storage_Profile_kW_Load17.csv) action=normalize
New Loadshape.Storage_19 npts=1440 minterval=1 mult=(file=Load_Profiles\Summer\Summer_Storage_Profile_kW_Load19.csv) action=normalize
New Loadshape.Storage_21 npts=1440 minterval=1 mult=(file=Load_Profiles\Summer\Summer_Storage_Profile_kW_Load21.csv) action=normalize
New Loadshape.Storage_23 npts=1440 minterval=1 mult=(file=Load_Profiles\Summer\Summer_Storage_Profile_kW_Load23.csv) action=normalize
New Loadshape.Storage_25 npts=1440 minterval=1 mult=(file=Load_Profiles\Summer\Summer_Storage_Profile_kW_Load25.csv) action=normalize
New Loadshape.Storage_27 npts=1440 minterval=1 mult=(file=Load_Profiles\Summer\Summer_Storage_Profile_kW_Load27.csv) action=normalize
New Loadshape.Storage_29 npts=1440 minterval=1 mult=(file=Load_Profiles\Summer\Summer_Storage_Profile_kW_Load29.csv) action=normalize
New Loadshape.Storage_31 npts=1440 minterval=1 mult=(file=Load_Profiles\Summer\Summer_Storage_Profile_kW_Load31.csv) action=normalize
New Loadshape.Storage_33 npts=1440 minterval=1 mult=(file=Load_Profiles\Summer\Summer_Storage_Profile_kW_Load33.csv) action=normalize
New Loadshape.Storage_35 npts=1440 minterval=1 mult=(file=Load_Profiles\Summer\Summer_Storage_Profile_kW_Load35.csv) action=normalize
New Loadshape.Storage_37 npts=1440 minterval=1 mult=(file=Load_Profiles\Summer\Summer_Storage_Profile_kW_Load37.csv) action=normalize
New Loadshape.Storage_39 npts=1440 minterval=1 mult=(file=Load_Profiles\Summer\Summer_Storage_Profile_kW_Load39.csv) action=normalize
New Loadshape.Storage_41 npts=1440 minterval=1 mult=(file=Load_Profiles\Summer\Summer_Storage_Profile_kW_Load41.csv) action=normalize
New Loadshape.Storage_43 npts=1440 minterval=1 mult=(file=Load_Profiles\Summer\Summer_Storage_Profile_kW_Load43.csv) action=normalize
New Loadshape.Storage_45 npts=1440 minterval=1 mult=(file=Load_Profiles\Summer\Summer_Storage_Profile_kW_Load45.csv) action=normalize
New Loadshape.Storage_47 npts=1440 minterval=1 mult=(file=Load_Profiles\Summer\Summer_Storage_Profile_kW_Load47.csv) action=normalize
New Loadshape.Storage_49 npts=1440 minterval=1 mult=(file=Load_Profiles\Summer\Summer_Storage_Profile_kW_Load49.csv) action=normalize
New Loadshape.Storage_51 npts=1440 minterval=1 mult=(file=Load_Profiles\Summer\Summer_Storage_Profile_kW_Load51.csv) action=normalize
New Loadshape.Storage_53 npts=1440 minterval=1 mult=(file=Load_Profiles\Summer\Summer_Storage_Profile_kW_Load53.csv) action=normalize
New Loadshape.Storage_55 npts=1440 minterval=1 mult=(file=Load_Profiles\Summer\Summer_Storage_Profile_kW_Load55.csv) action=normalize
